output/1_TAP2_1/Cargas_BT_DU11_1_TAP2_1.dss
New "Load.BT_15168_0_M1" bus1="UC15168.1.4" phases=1 conn=delta model=2 kv=0.22 kw = 0.7917760860718467 pf=0.92 status=variable vmaxpu=1.5 vminpu=0.92 daily="RES_2_DU" 
New "Load.BT_15168_0_M2" bus1="UC15168.1.4" phases=1 conn=delta model=3 kv=0.22 kw = 0.7917760860718467 pf=0.92 status=variable vmaxpu=1.5 vminpu=0.92 daily="RES_2_DU"
 
New "Load.BT_15169_1_M1" bus1="UC15169.1.2.3.4" phases=3 conn=delta model=2 kv=0.38 kw = 0.5619056094703428 pf=0.92 status=variable vmaxpu=1.5 vminpu=0.92 daily="RES_2_DU" 
New "Load.BT_15169_1_M2" bus1="UC15169.1.2.3.4" phases=3 conn=delta model=3 kv=0.38 kw = 0.5619056094703428 pf=0.92 status=variable vmaxpu=1.5 vminpu=0.92 daily="RES_2_DU"
 
New "Load.BT_15174_4_M1" bus1="UC15174.1.4" phases=1 conn=delta model=2 kv=0.22 kw = 0.5243383209180202 pf=0.92 status=variable vmaxpu=1.5 vminpu=0.92 daily="RES_10_DU" 
New "Load.BT_15174_4_M2" bus1="UC15174.1.4" phases=1 conn=delta model=3 kv=0.22 kw = 0.5243383209180202 pf=0.92 status=variable vmaxpu=1.5 vminpu=0.92 daily="RES_10_DU"
 
New "Load.BT_13788_5_M1" bus1="UC13788.3.4" phases=1 conn=delta model=2 kv=0.22 kw = 0.3422515984955724 pf=0.92 status=variable vmaxpu=1.5 vminpu=0.92 daily="RES_2_DU" 
New "Load.BT_13788_5_M2" bus1="UC13788.3.4" phases=1 conn=delta model=3 kv=0.22 kw = 0.3422515984955724 pf=0.92 status=variable vmaxpu=1.5 vminpu=0.92 daily="RES_2_DU"
 
New "Load.BT_15175_6_M1" bus1="UC15175.1.2.3.4" phases=3 conn=delta model=2 kv=0.38 kw = 0.8735078110857147 pf=0.92 status=variable vmaxpu=1.5 vminpu=0.92 daily="RES_2_DU" 
New "Load.BT_15175_6_M2" bus1="UC15175.1.2.3.4" phases=3 conn=delta model=3 kv=0.38 kw = 0.8735078110857147 pf=0.92 status=variable vmaxpu=1.5 vminpu=0.92 daily="RES_2_DU"
 
New "Load.BT_10794_8_M1" bus1="ET1_159.2.3.4" phases=2 conn=delta model=2 kv=0.38 kw = 0.5606976478248231 pf=0.92 status=variable vmaxpu=1.5 vminpu=0.92 daily="RES_3_DU" 
New "Load.BT_10794_8_M2" bus1="ET1_159.2.3.4" phases=2 conn=delta model=3 kv=0.38 kw = 0.5606976478248231 pf=0.92 status=variable vmaxpu=1.5 vminpu=0.92 daily="RES_3_DU"
 
New "Load.BT_15178_9_M1" bus1="UC15178.3.4" phases=1 conn=delta model=2 kv=0.22 kw = 0.7320000007003251 pf=0.92 status=variable vmaxpu=1.5 vminpu=0.92 daily="RES_1_DU" 
New "Load.BT_15178_9_M2" bus1="UC15178.3.4" phases=1 conn=delta model=3 kv=0.22 kw = 0.7320000007003251 pf=0.92 status=variable vmaxpu=1.5 vminpu=0.92 daily="RES_1_DU"
 
New "Load.BT_15180_11_M1" bus1="UC15180.1.4" phases=1 conn=delta model=2 kv=0.22 kw = 0.36779276256240623 pf=0.92 status=variable vmaxpu=1.5 vminpu=0.92 daily="RES_2_DU" 
New "Load.BT_15180_11_M2" bus1="UC15180.1.4" phases=1 conn=delta model=3 kv=0.22 kw = 0.36779276256240623 pf=0.92 status=variable vmaxpu=1.5 vminpu=0.92 daily="RES_2_DU"
 
New "Load.BT_15581_15_M1" bus1="UC15581.1.2.3.4" phases=3 conn=delta model=2 kv=0.38 kw = 0.4039148932197778 pf=0.92 status=variable vmaxpu=1.5 vminpu=0.92 daily="RES_3_DU" 
New "Load.BT_15581_15_M2" bus1="UC15581.1.2.3.4" phases=3 conn=delta model=3 kv=0.38 kw = 0.4039148932197778 pf=0.92 status=variable vmaxpu=1.5 vminpu=0.92 daily="RES_3_DU"
 
New "Load.BT_15838_16_M1" bus1="UC15838.3.4" phases=1 conn=delta model=2 kv=0.22 kw = 0.0 pf=0.92 status=variable vmaxpu=1.5 vminpu=0.92 daily="RES_7_DU" 
New "Load.BT_15838_16_M2" bus1="UC15838.3.4" phases=1 conn=delta model=3 kv=0.22 kw = 0.0 pf=0.92 status=variable vmaxpu=1.5 vminpu=0.92 daily="RES_7_DU"
 
New "Load.BT_14653_19_M1" bus1="UC14653.1.2.3.4" phases=3 conn=delta model=2 kv=0.38 kw = 0.02391601341432895 pf=0.92 status=variable vmaxpu=1.5 vminpu=0.92 daily="RES_3_DU" 
New "Load.BT_14653_19_M2" bus1="UC14653.1.2.3.4" phases=3 conn=delta model=3 kv=0.38 kw = 0.02391601341432895 pf=0.92 status=variable vmaxpu=1.5 vminpu=0.92 daily="RES_3_DU"
 
New "Load.BT_10919_21_M1" bus1="UC10919.3.4" phases=1 conn=delta model=2 kv=0.22 kw = 0.584613661239152 pf=0.92 status=variable vmaxpu=1.5 vminpu=0.92 daily="RES_3_DU" 
New "Load.BT_10919_21_M2" bus1="UC10919.3.4" phases=1 conn=delta model=3 kv=0.22 kw = 0.584613661239152 pf=0.92 status=variable vmaxpu=1.5 vminpu=0.92 daily="RES_3_DU"
 
New "Load.BT_16152_22_M1" bus1="UC16152.1.4" phases=1 conn=delta model=2 kv=0.22 kw = 0.0 pf=0.92 status=variable vmaxpu=1.5 vminpu=0.92 daily="RES_7_DU" 
New "Load.BT_16152_22_M2" bus1="UC16152.1.4" phases=1 conn=delta model=3 kv=0.22 kw = 0.0 pf=0.92 status=variable vmaxpu=1.5 vminpu=0.92 daily="RES_7_DU"
 
New "Load.BT_2530_24_M1" bus1="UC2530.1.4" phases=1 conn=delta model=2 kv=0.22 kw = 0.22055879037658918 pf=0.92 status=variable vmaxpu=1.5 vminpu=0.92 daily="RES_3_DU" 
New "Load.BT_2530_24_M2" bus1="UC2530.1.4" phases=1 conn=delta model=3 kv=0.22 kw = 0.22055879037658918 pf=0.92 status=variable vmaxpu=1.5 vminpu=0.92 daily="RES_3_DU"
 
New "Load.BT_16140_25_M1" bus1="UC16140.1.2.3.4" phases=3 conn=delta model=2 kv=0.38 kw = 4.913412089232692 pf=0.92 status=variable vmaxpu=1.5 vminpu=0.92 daily="RES_3_DU" 
New "Load.BT_16140_25_M2" bus1="UC16140.1.2.3.4" phases=3 conn=delta model=3 kv=0.38 kw = 4.913412089232692 pf=0.92 status=variable vmaxpu=1.5 vminpu=0.92 daily="RES_3_DU"
 
New "Load.BT_16156_26_M1" bus1="UC16156.3.4" phases=1 conn=delta model=2 kv=0.22 kw = 0.0033152197213534465 pf=0.92 status=variable vmaxpu=1.5 vminpu=0.92 daily="RES_7_DU" 
New "Load.BT_16156_26_M2" bus1="UC16156.3.4" phases=1 conn=delta model=3 kv=0.22 kw = 0.0033152197213534465 pf=0.92 status=variable vmaxpu=1.5 vminpu=0.92 daily="RES_7_DU"
 
New "Load.BT_16132_28_M1" bus1="UC16132.3.4" phases=1 conn=delta model=2 kv=0.22 kw = 0.039654114759877034 pf=0.92 status=variable vmaxpu=1.5 vminpu=0.92 daily="COM_5_DU" 
New "Load.BT_16132_28_M2" bus1="UC16132.3.4" phases=1 conn=delta model=3 kv=0.22 kw = 0.039654114759877034 pf=0.92 status=variable vmaxpu=1.5 vminpu=0.92 daily="COM_5_DU"
 
New "Load.BT_8216_30_M1" bus1="UC8216.3.4" phases=1 conn=delta model=2 kv=0.22 kw = 0.8875498311539854 pf=0.92 status=variable vmaxpu=1.5 vminpu=0.92 daily="RES_3_DU" 
New "Load.BT_8216_30_M2" bus1="UC8216.3.4" phases=1 conn=delta model=3 kv=0.22 kw = 0.8875498311539854 pf=0.92 status=variable vmaxpu=1.5 vminpu=0.92 daily="RES_3_DU"
 
New "Load.BT_16139_33_M1" bus1="UC16139.2.4" phases=1 conn=delta model=2 kv=0.22 kw = 0.49160694240565067 pf=0.92 status=variable vmaxpu=1.5 vminpu=0.92 daily="RES_3_DU" 
New "Load.BT_16139_33_M2" bus1="UC16139.2.4" phases=1 conn=delta model=3 kv=0.22 kw = 0.49160694240565067 pf=0.92 status=variable vmaxpu=1.5 vminpu=0.92 daily="RES_3_DU"
 
New "Load.BT_16135_34_M1" bus1="UC16135.3.4" phases=1 conn=delta model=2 kv=0.22 kw = 0.30293616991483335 pf=0.92 status=variable vmaxpu=1.5 vminpu=0.92 daily="RES_3_DU" 
New "Load.BT_16135_34_M2" bus1="UC16135.3.4" phases=1 conn=delta model=3 kv=0.22 kw = 0.30293616991483335 pf=0.92 status=variable vmaxpu=1.5 vminpu=0.92 daily="RES_3_DU"
 
New "Load.BT_16138_35_M1" bus1="UC16138.3.4" phases=1 conn=delta model=2 kv=0.22 kw = 0.039654114759877034 pf=0.92 status=variable vmaxpu=1.5 vminpu=0.92 daily="COM_5_DU" 
New "Load.BT_16138_35_M2" bus1="UC16138.3.4" phases=1 conn=delta model=3 kv=0.22 kw = 0.039654114759877034 pf=0.92 status=variable vmaxpu=1.5 vminpu=0.92 daily="COM_5_DU"
 
New "Load.BT_8555_36_M1" bus1="UC8555.3.4" phases=1 conn=delta model=2 kv=0.22 kw = 0.6590190363059533 pf=0.92 status=variable vmaxpu=1.5 vminpu=0.92 daily="RES_3_DU" 
New "Load.BT_8555_36_M2" bus1="UC8555.3.4" phases=1 conn=delta model=3 kv=0.22 kw = 0.6590190363059533 pf=0.92 status=variable vmaxpu=1.5 vminpu=0.92 daily="RES_3_DU"
 
New "Load.BT_15362_38_M1" bus1="UC15362.2.3.4" phases=2 conn=delta model=2 kv=0.38 kw = 0.0033152197213534465 pf=0.92 status=variable vmaxpu=1.5 vminpu=0.92 daily="RES_7_DU" 
New "Load.BT_15362_38_M2" bus1="UC15362.2.3.4" phases=2 conn=delta model=3 kv=0.38 kw = 0.0033152197213534465 pf=0.92 status=variable vmaxpu=1.5 vminpu=0.92 daily="RES_7_DU"
 
New "Load.BT_5102_39_M1" bus1="UC5102.1.4" phases=1 conn=delta model=2 kv=0.22 kw = 0.3853135494530775 pf=0.92 status=variable vmaxpu=1.5 vminpu=0.92 daily="RES_3_DU" 
New "Load.BT_5102_39_M2" bus1="UC5102.1.4" phases=1 conn=delta model=3 kv=0.22 kw = 0.3853135494530775 pf=0.92 status=variable vmaxpu=1.5 vminpu=0.92 daily="RES_3_DU"
 
New "Load.BT_7753_40_M1" bus1="UC7753.1.4" phases=1 conn=delta model=2 kv=0.22 kw = 0.0699778495762536 pf=0.92 status=variable vmaxpu=1.5 vminpu=0.92 daily="COM_5_DU" 
New "Load.BT_7753_40_M2" bus1="UC7753.1.4" phases=1 conn=delta model=3 kv=0.22 kw = 0.0699778495762536 pf=0.92 status=variable vmaxpu=1.5 vminpu=0.92 daily="COM_5_DU"
 
New "Load.BT_12439_42_M1" bus1="UC12439.3.4" phases=1 conn=delta model=2 kv=0.22 kw = 0.16741209390030265 pf=0.92 status=variable vmaxpu=1.5 vminpu=0.92 daily="RES_3_DU" 
New "Load.BT_12439_42_M2" bus1="UC12439.3.4" phases=1 conn=delta model=3 kv=0.22 kw = 0.16741209390030265 pf=0.92 status=variable vmaxpu=1.5 vminpu=0.92 daily="RES_3_DU"
 
New "Load.BT_9732_43_M1" bus1="UC9732.1.4" phases=1 conn=delta model=2 kv=0.22 kw = 0.0868399578272348 pf=0.92 status=variable vmaxpu=1.5 vminpu=0.92 daily="RES_2_DU" 
New "Load.BT_9732_43_M2" bus1="UC9732.1.4" phases=1 conn=delta model=3 kv=0.22 kw = 0.0868399578272348 pf=0.92 status=variable vmaxpu=1.5 vminpu=0.92 daily="RES_2_DU"
 
New "Load.BT_1855_44_M1" bus1="UC1855.1.4" phases=1 conn=delta model=2 kv=0.22 kw = 0.4316456727294906 pf=0.92 status=variable vmaxpu=1.5 vminpu=0.92 daily="RES_2_DU" 
New "Load.BT_1855_44_M2" bus1="UC1855.1.4" phases=1 conn=delta model=3 kv=0.22 kw = 0.4316456727294906 pf=0.92 status=variable vmaxpu=1.5 vminpu=0.92 daily="RES_2_DU"
 
New "Load.BT_1136_45_M1" bus1="UC1136.2.4" phases=1 conn=delta model=2 kv=0.22 kw = 0.36798938907023254 pf=0.92 status=variable vmaxpu=1.5 vminpu=0.92 daily="RES_7_DU" 
New "Load.BT_1136_45_M2" bus1="UC1136.2.4" phases=1 conn=delta model=3 kv=0.22 kw = 0.36798938907023254 pf=0.92 status=variable vmaxpu=1.5 vminpu=0.92 daily="RES_7_DU"
 
New "Load.BT_9732_46_M1" bus1="UC9732.2.4" phases=1 conn=delta model=2 kv=0.22 kw = 0.1045741705456127 pf=0.92 status=variable vmaxpu=1.5 vminpu=0.92 daily="RES_9_DU" 
New "Load.BT_9732_46_M2" bus1="UC9732.2.4" phases=1 conn=delta model=3 kv=0.22 kw = 0.1045741705456127 pf=0.92 status=variable vmaxpu=1.5 vminpu=0.92 daily="RES_9_DU"
 
New "Load.BT_15851_48_M1" bus1="UC15851.3.4" phases=1 conn=delta model=2 kv=0.22 kw = 0.07956527331248271 pf=0.92 status=variable vmaxpu=1.5 vminpu=0.92 daily="RES_7_DU" 
New "Load.BT_15851_48_M2" bus1="UC15851.3.4" phases=1 conn=delta model=3 kv=0.22 kw = 0.07956527331248271 pf=0.92 status=variable vmaxpu=1.5 vminpu=0.92 daily="RES_7_DU"
 
New "Load.BT_15850_49_M1" bus1="UC15850.3.1.4" phases=2 conn=delta model=2 kv=0.38 kw = 0.016449438217984835 pf=0.92 status=variable vmaxpu=1.5 vminpu=0.92 daily="RES_1_DU" 
New "Load.BT_15850_49_M2" bus1="UC15850.3.1.4" phases=2 conn=delta model=3 kv=0.38 kw = 0.016449438217984835 pf=0.92 status=variable vmaxpu=1.5 vminpu=0.92 daily="RES_1_DU"
 
New "Load.BT_15688_53_M1" bus1="UC15688.1.4" phases=1 conn=delta model=2 kv=0.22 kw = 0.01328667411907164 pf=0.92 status=variable vmaxpu=1.5 vminpu=0.92 daily="RES_3_DU" 
New "Load.BT_15688_53_M2" bus1="UC15688.1.4" phases=1 conn=delta model=3 kv=0.22 kw = 0.01328667411907164 pf=0.92 status=variable vmaxpu=1.5 vminpu=0.92 daily="RES_3_DU"
 
New "Load.BT_10153_54_M1" bus1="UC10153.2.4" phases=1 conn=delta model=2 kv=0.22 kw = 0.664333705953582 pf=0.92 status=variable vmaxpu=1.5 vminpu=0.92 daily="RES_3_DU" 
New "Load.BT_10153_54_M2" bus1="UC10153.2.4" phases=1 conn=delta model=3 kv=0.22 kw = 0.664333705953582 pf=0.92 status=variable vmaxpu=1.5 vminpu=0.92 daily="RES_3_DU"
 
New "Load.BT_15497_56_M1" bus1="UC15497.1.4" phases=1 conn=delta model=2 kv=0.22 kw = 0.6819490805844615 pf=0.92 status=variable vmaxpu=1.5 vminpu=0.92 daily="RES_2_DU" 
New "Load.BT_15497_56_M2" bus1="UC15497.1.4" phases=1 conn=delta model=3 kv=0.22 kw = 0.6819490805844615 pf=0.92 status=variable vmaxpu=1.5 vminpu=0.92 daily="RES_2_DU"
 
New "Load.BT_15497_57_M1" bus1="UC15497.3.4" phases=1 conn=delta model=2 kv=0.22 kw = 0.06129879376040103 pf=0.92 status=variable vmaxpu=1.5 vminpu=0.92 daily="RES_2_DU" 
New "Load.BT_15497_57_M2" bus1="UC15497.3.4" phases=1 conn=delta model=3 kv=0.22 kw = 0.06129879376040103 pf=0.92 status=variable vmaxpu=1.5 vminpu=0.92 daily="RES_2_DU"
 
New "Load.BT_5544_59_M1" bus1="UC5544.2.4" phases=1 conn=delta model=2 kv=0.22 kw = 0.5516891438436092 pf=0.92 status=variable vmaxpu=1.5 vminpu=0.92 daily="RES_2_DU" 
New "Load.BT_5544_59_M2" bus1="UC5544.2.4" phases=1 conn=delta model=3 kv=0.22 kw = 0.5516891438436092 pf=0.92 status=variable vmaxpu=1.5 vminpu=0.92 daily="RES_2_DU"
 
New "Load.BT_15499_60_M1" bus1="UC15499.3.4" phases=1 conn=delta model=2 kv=0.22 kw = 0.30904808520868854 pf=0.92 status=variable vmaxpu=1.5 vminpu=0.92 daily="RES_2_DU" 
New "Load.BT_15499_60_M2" bus1="UC15499.3.4" phases=1 conn=delta model=3 kv=0.22 kw = 0.30904808520868854 pf=0.92 status=variable vmaxpu=1.5 vminpu=0.92 daily="RES_2_DU"
 
New "Load.BT_8603_62_M1" bus1="UC8603.1.2.3.4" phases=3 conn=delta model=2 kv=0.38 kw = 0.6864334370497291 pf=0.92 status=variable vmaxpu=1.5 vminpu=0.92 daily="COM_1_DU" 
New "Load.BT_8603_62_M2" bus1="UC8603.1.2.3.4" phases=3 conn=delta model=3 kv=0.38 kw = 0.6864334370497291 pf=0.92 status=variable vmaxpu=1.5 vminpu=0.92 daily="COM_1_DU"
 
New "Load.BT_15509_63_M1" bus1="UC15509.1.2.4" phases=2 conn=delta model=2 kv=0.38 kw = 0.030649396880200516 pf=0.92 status=variable vmaxpu=1.5 vminpu=0.92 daily="RES_2_DU" 
New "Load.BT_15509_63_M2" bus1="UC15509.1.2.4" phases=2 conn=delta model=3 kv=0.38 kw = 0.030649396880200516 pf=0.92 status=variable vmaxpu=1.5 vminpu=0.92 daily="RES_2_DU"
 
New "Load.BT_15510_65_M1" bus1="UC15510.1.2.3.4" phases=3 conn=delta model=2 kv=0.38 kw = 0.4880921172991793 pf=0.92 status=variable vmaxpu=1.5 vminpu=0.92 daily="COM_1_DU" 
New "Load.BT_15510_65_M2" bus1="UC15510.1.2.3.4" phases=3 conn=delta model=3 kv=0.38 kw = 0.4880921172991793 pf=0.92 status=variable vmaxpu=1.5 vminpu=0.92 daily="COM_1_DU"
 
New "Load.BT_6671_66_M1" bus1="UC6671.1.4" phases=1 conn=delta model=2 kv=0.22 kw = 0.21199166175472023 pf=0.92 status=variable vmaxpu=1.5 vminpu=0.92 daily="RES_2_DU" 
New "Load.BT_6671_66_M2" bus1="UC6671.1.4" phases=1 conn=delta model=3 kv=0.22 kw = 0.21199166175472023 pf=0.92 status=variable vmaxpu=1.5 vminpu=0.92 daily="RES_2_DU"
 
New "Load.BT_9626_67_M1" bus1="UC9626.3.4" phases=1 conn=delta model=2 kv=0.22 kw = 0.40610450866265685 pf=0.92 status=variable vmaxpu=1.5 vminpu=0.92 daily="RES_2_DU" 
New "Load.BT_9626_67_M2" bus1="UC9626.3.4" phases=1 conn=delta model=3 kv=0.22 kw = 0.40610450866265685 pf=0.92 status=variable vmaxpu=1.5 vminpu=0.92 daily="RES_2_DU"
 
New "Load.BT_13002_68_M1" bus1="UC13002.3.4" phases=1 conn=delta model=2 kv=0.22 kw = 0.05001650671970388 pf=0.92 status=variable vmaxpu=1.5 vminpu=0.92 daily="COM_1_DU" 
New "Load.BT_13002_68_M2" bus1="UC13002.3.4" phases=1 conn=delta model=3 kv=0.22 kw = 0.05001650671970388 pf=0.92 status=variable vmaxpu=1.5 vminpu=0.92 daily="COM_1_DU"
 
New "Load.BT_13331_69_M1" bus1="UC13331.1.4" phases=1 conn=delta model=2 kv=0.22 kw = 0.02043293125346701 pf=0.92 status=variable vmaxpu=1.5 vminpu=0.92 daily="RES_2_DU" 
New "Load.BT_13331_69_M2" bus1="UC13331.1.4" phases=1 conn=delta model=3 kv=0.22 kw = 0.02043293125346701 pf=0.92 status=variable vmaxpu=1.5 vminpu=0.92 daily="RES_2_DU"
 
New "Load.BT_14890_70_M1" bus1="UC14890.1.2.3.4" phases=3 conn=delta model=2 kv=0.38 kw = 0.22987047660150386 pf=0.92 status=variable vmaxpu=1.5 vminpu=0.92 daily="RES_2_DU" 
New "Load.BT_14890_70_M2" bus1="UC14890.1.2.3.4" phases=3 conn=delta model=3 kv=0.38 kw = 0.22987047660150386 pf=0.92 status=variable vmaxpu=1.5 vminpu=0.92 daily="RES_2_DU"
 
New "Load.BT_14890_71_M1" bus1="UC14890.1.2.3.4" phases=3 conn=delta model=2 kv=0.38 kw = 0.2835069211418548 pf=0.92 status=variable vmaxpu=1.5 vminpu=0.92 daily="RES_2_DU" 
New "Load.BT_14890_71_M2" bus1="UC14890.1.2.3.4" phases=3 conn=delta model=3 kv=0.38 kw = 0.2835069211418548 pf=0.92 status=variable vmaxpu=1.5 vminpu=0.92 daily="RES_2_DU"
 
New "Load.BT_15137_72_M1" bus1="UC15137.1.2.3.4" phases=3 conn=delta model=2 kv=0.38 kw = 3.767622721696315 pf=0.92 status=variable vmaxpu=1.5 vminpu=0.92 daily="IND_1_DU" 
New "Load.BT_15137_72_M2" bus1="UC15137.1.2.3.4" phases=3 conn=delta model=3 kv=0.38 kw = 3.767622721696315 pf=0.92 status=variable vmaxpu=1.5 vminpu=0.92 daily="IND_1_DU"
 
New "Load.BT_7113_73_M1" bus1="UC7113.1.4" phases=1 conn=delta model=2 kv=0.22 kw = 0.39588804303592334 pf=0.92 status=variable vmaxpu=1.5 vminpu=0.92 daily="RES_2_DU" 
New "Load.BT_7113_73_M2" bus1="UC7113.1.4" phases=1 conn=delta model=3 kv=0.22 kw = 0.39588804303592334 pf=0.92 status=variable vmaxpu=1.5 vminpu=0.92 daily="RES_2_DU"
 
New "Load.BT_9718_74_M1" bus1="UC9718.1.4" phases=1 conn=delta model=2 kv=0.22 kw = 0.16346345002773607 pf=0.92 status=variable vmaxpu=1.5 vminpu=0.92 daily="RES_2_DU" 
New "Load.BT_9718_74_M2" bus1="UC9718.1.4" phases=1 conn=delta model=3 kv=0.22 kw = 0.16346345002773607 pf=0.92 status=variable vmaxpu=1.5 vminpu=0.92 daily="RES_2_DU"
 
New "Load.BT_10594_76_M1" bus1="UC10594.3.1.4" phases=2 conn=delta model=2 kv=0.38 kw = 0.2538592532097543 pf=0.92 status=variable vmaxpu=1.5 vminpu=0.92 daily="RES_11_DU" 
New "Load.BT_10594_76_M2" bus1="UC10594.3.1.4" phases=2 conn=delta model=3 kv=0.38 kw = 0.2538592532097543 pf=0.92 status=variable vmaxpu=1.5 vminpu=0.92 daily="RES_11_DU"
 
New "Load.BT_15149_77_M1" bus1="UC15149.1.2.4" phases=2 conn=delta model=2 kv=0.38 kw = 0.3473598313089392 pf=0.92 status=variable vmaxpu=1.5 vminpu=0.92 daily="RES_2_DU" 
New "Load.BT_15149_77_M2" bus1="UC15149.1.2.4" phases=2 conn=delta model=3 kv=0.38 kw = 0.3473598313089392 pf=0.92 status=variable vmaxpu=1.5 vminpu=0.92 daily="RES_2_DU"
 
New "Load.BT_13667_78_M1" bus1="UC13667.1.2.3.4" phases=3 conn=delta model=2 kv=0.38 kw = 0.6298917470571548 pf=0.92 status=variable vmaxpu=1.5 vminpu=0.92 daily="RES_7_DU" 
New "Load.BT_13667_78_M2" bus1="UC13667.1.2.3.4" phases=3 conn=delta model=3 kv=0.38 kw = 0.6298917470571548 pf=0.92 status=variable vmaxpu=1.5 vminpu=0.92 daily="RES_7_DU"
 
New "Load.BT_15154_79_M1" bus1="UC15154.3.4" phases=1 conn=delta model=2 kv=0.22 kw = 0.6881348321190323 pf=0.92 status=variable vmaxpu=1.5 vminpu=0.92 daily="RES_1_DU" 
New "Load.BT_15154_79_M2" bus1="UC15154.3.4" phases=1 conn=delta model=3 kv=0.22 kw = 0.6881348321190323 pf=0.92 status=variable vmaxpu=1.5 vminpu=0.92 daily="RES_1_DU"
 
New "Load.BT_15150_80_M1" bus1="UC15150.1.2.3.4" phases=3 conn=delta model=2 kv=0.38 kw = 0.569567958690393 pf=0.92 status=variable vmaxpu=1.5 vminpu=0.92 daily="RES_2_DU" 
New "Load.BT_15150_80_M2" bus1="UC15150.1.2.3.4" phases=3 conn=delta model=3 kv=0.38 kw = 0.569567958690393 pf=0.92 status=variable vmaxpu=1.5 vminpu=0.92 daily="RES_2_DU"
 
New "Load.BT_14783_82_M1" bus1="UC14783.1.2.3.4" phases=3 conn=delta model=2 kv=0.38 kw = 0.15835521721436932 pf=0.92 status=variable vmaxpu=1.5 vminpu=0.92 daily="RES_2_DU" 
New "Load.BT_14783_82_M2" bus1="UC14783.1.2.3.4" phases=3 conn=delta model=3 kv=0.38 kw = 0.15835521721436932 pf=0.92 status=variable vmaxpu=1.5 vminpu=0.92 daily="RES_2_DU"
 
New "Load.BT_10551_83_M1" bus1="UC10551.2.4" phases=1 conn=delta model=2 kv=0.22 kw = 0.26742425147287086 pf=0.92 status=variable vmaxpu=1.5 vminpu=0.92 daily="RES_11_DU" 
New "Load.BT_10551_83_M2" bus1="UC10551.2.4" phases=1 conn=delta model=3 kv=0.22 kw = 0.26742425147287086 pf=0.92 status=variable vmaxpu=1.5 vminpu=0.92 daily="RES_11_DU"
 
New "Load.BT_15130_85_M1" bus1="UC15130.3.4" phases=1 conn=delta model=2 kv=0.22 kw = 0.02328354623158629 pf=0.92 status=variable vmaxpu=1.5 vminpu=0.92 daily="COM_1_DU" 
New "Load.BT_15130_85_M2" bus1="UC15130.3.4" phases=1 conn=delta model=3 kv=0.22 kw = 0.02328354623158629 pf=0.92 status=variable vmaxpu=1.5 vminpu=0.92 daily="COM_1_DU"
 
New "Load.BT_11345_91_M1" bus1="UC11345.3.4" phases=1 conn=delta model=2 kv=0.22 kw = 0.1471282216702518 pf=0.92 status=variable vmaxpu=1.5 vminpu=0.92 daily="RES_8_DU" 
New "Load.BT_11345_91_M2" bus1="UC11345.3.4" phases=1 conn=delta model=3 kv=0.22 kw = 0.1471282216702518 pf=0.92 status=variable vmaxpu=1.5 vminpu=0.92 daily="RES_8_DU"
 
New "Load.BT_1871_94_M1" bus1="UC1871.2.4" phases=1 conn=delta model=2 kv=0.22 kw = 0.34376759796141537 pf=0.92 status=variable vmaxpu=1.5 vminpu=0.92 daily="RES_13_DU" 
New "Load.BT_1871_94_M2" bus1="UC1871.2.4" phases=1 conn=delta model=3 kv=0.22 kw = 0.34376759796141537 pf=0.92 status=variable vmaxpu=1.5 vminpu=0.92 daily="RES_13_DU"
 
New "Load.BT_15581_97_M1" bus1="UC15581.1.2.3.4" phases=3 conn=delta model=2 kv=0.38 kw = 0.48097760311039334 pf=0.92 status=variable vmaxpu=1.5 vminpu=0.92 daily="RES_3_DU" 
New "Load.BT_15581_97_M2" bus1="UC15581.1.2.3.4" phases=3 conn=delta model=3 kv=0.38 kw = 0.48097760311039334 pf=0.92 status=variable vmaxpu=1.5 vminpu=0.92 daily="RES_3_DU"
 
New "Load.BT_14653_98_M1" bus1="UC14653.1.2.3.4" phases=3 conn=delta model=2 kv=0.38 kw = 0.9433538624540863 pf=0.92 status=variable vmaxpu=1.5 vminpu=0.92 daily="RES_3_DU" 
New "Load.BT_14653_98_M2" bus1="UC14653.1.2.3.4" phases=3 conn=delta model=3 kv=0.38 kw = 0.9433538624540863 pf=0.92 status=variable vmaxpu=1.5 vminpu=0.92 daily="RES_3_DU"
 
New "Load.BT_8216_99_M1" bus1="UC8216.3.4" phases=1 conn=delta model=2 kv=0.22 kw = 0.30825083956246196 pf=0.92 status=variable vmaxpu=1.5 vminpu=0.92 daily="RES_3_DU" 
New "Load.BT_8216_99_M2" bus1="UC8216.3.4" phases=1 conn=delta model=3 kv=0.22 kw = 0.30825083956246196 pf=0.92 status=variable vmaxpu=1.5 vminpu=0.92 daily="RES_3_DU"
 
New "Load.BT_16125_100_M1" bus1="UC16125.1.2.3.4" phases=3 conn=delta model=2 kv=0.38 kw = 0.013260878885413786 pf=0.92 status=variable vmaxpu=1.5 vminpu=0.92 daily="RES_7_DU" 
New "Load.BT_16125_100_M2" bus1="UC16125.1.2.3.4" phases=3 conn=delta model=3 kv=0.38 kw = 0.013260878885413786 pf=0.92 status=variable vmaxpu=1.5 vminpu=0.92 daily="RES_7_DU"
 
New "Load.BT_16120_101_M1" bus1="UC16120.1.2.3.4" phases=3 conn=delta model=2 kv=0.38 kw = 4.889496075818363 pf=0.92 status=variable vmaxpu=1.5 vminpu=0.92 daily="RES_3_DU" 
New "Load.BT_16120_101_M2" bus1="UC16120.1.2.3.4" phases=3 conn=delta model=3 kv=0.38 kw = 4.889496075818363 pf=0.92 status=variable vmaxpu=1.5 vminpu=0.92 daily="RES_3_DU"
 
New "Load.BT_16117_104_M1" bus1="UC16117.1.4" phases=1 conn=delta model=2 kv=0.22 kw = 0.7121657327822398 pf=0.92 status=variable vmaxpu=1.5 vminpu=0.92 daily="RES_3_DU" 
New "Load.BT_16117_104_M2" bus1="UC16117.1.4" phases=1 conn=delta model=3 kv=0.22 kw = 0.7121657327822398 pf=0.92 status=variable vmaxpu=1.5 vminpu=0.92 daily="RES_3_DU"
 
New "Load.BT_2901_106_M1" bus1="UC2901.2.4" phases=1 conn=delta model=2 kv=0.22 kw = 0.4597189245198787 pf=0.92 status=variable vmaxpu=1.5 vminpu=0.92 daily="RES_3_DU" 
New "Load.BT_2901_106_M2" bus1="UC2901.2.4" phases=1 conn=delta model=3 kv=0.22 kw = 0.4597189245198787 pf=0.92 status=variable vmaxpu=1.5 vminpu=0.92 daily="RES_3_DU"
 
New "Load.BT_8431_107_M1" bus1="UC8431.2.4" phases=1 conn=delta model=2 kv=0.22 kw = 0.6776203800726536 pf=0.92 status=variable vmaxpu=1.5 vminpu=0.92 daily="RES_3_DU" 
New "Load.BT_8431_107_M2" bus1="UC8431.2.4" phases=1 conn=delta model=3 kv=0.22 kw = 0.6776203800726536 pf=0.92 status=variable vmaxpu=1.5 vminpu=0.92 daily="RES_3_DU"
 
New "Load.BT_16128_108_M1" bus1="UC16128.1.4" phases=1 conn=delta model=2 kv=0.22 kw = 0.053043515541655144 pf=0.92 status=variable vmaxpu=1.5 vminpu=0.92 daily="RES_7_DU" 
New "Load.BT_16128_108_M2" bus1="UC16128.1.4" phases=1 conn=delta model=3 kv=0.22 kw = 0.053043515541655144 pf=0.92 status=variable vmaxpu=1.5 vminpu=0.92 daily="RES_7_DU"
 
New "Load.BT_15685_113_M1" bus1="UC15685.1.2.3.4" phases=3 conn=delta model=2 kv=0.38 kw = 0.2199001588538705 pf=0.92 status=variable vmaxpu=1.5 vminpu=0.92 daily="COM_1_DU" 
New "Load.BT_15685_113_M2" bus1="UC15685.1.2.3.4" phases=3 conn=delta model=3 kv=0.38 kw = 0.2199001588538705 pf=0.92 status=variable vmaxpu=1.5 vminpu=0.92 daily="COM_1_DU"
 
New "Load.BT_10153_115_M1" bus1="UC10153.2.4" phases=1 conn=delta model=2 kv=0.22 kw = 0.3422515984955724 pf=0.92 status=variable vmaxpu=1.5 vminpu=0.92 daily="RES_2_DU" 
New "Load.BT_10153_115_M2" bus1="UC10153.2.4" phases=1 conn=delta model=3 kv=0.22 kw = 0.3422515984955724 pf=0.92 status=variable vmaxpu=1.5 vminpu=0.92 daily="RES_2_DU"
 
New "Load.BT_15838_116_M1" bus1="UC15838.2.4" phases=1 conn=delta model=2 kv=0.22 kw = 0.0 pf=0.92 status=variable vmaxpu=1.5 vminpu=0.92 daily="RES_2_DU" 
New "Load.BT_15838_116_M2" bus1="UC15838.2.4" phases=1 conn=delta model=3 kv=0.22 kw = 0.0 pf=0.92 status=variable vmaxpu=1.5 vminpu=0.92 daily="RES_2_DU"
 
New "Load.BT_15839_117_M1" bus1="UC15839.2.3.4" phases=2 conn=delta model=2 kv=0.38 kw = 0.02067163836366763 pf=0.92 status=variable vmaxpu=1.5 vminpu=0.92 daily="RES_9_DU" 
New "Load.BT_15839_117_M2" bus1="UC15839.2.3.4" phases=2 conn=delta model=3 kv=0.38 kw = 0.02067163836366763 pf=0.92 status=variable vmaxpu=1.5 vminpu=0.92 daily="RES_9_DU"
 
New "Load.BT_14029_118_M1" bus1="UC14029.1.4" phases=1 conn=delta model=2 kv=0.22 kw = 0.3652386461557228 pf=0.92 status=variable vmaxpu=1.5 vminpu=0.92 daily="RES_2_DU" 
New "Load.BT_14029_118_M2" bus1="UC14029.1.4" phases=1 conn=delta model=3 kv=0.22 kw = 0.3652386461557228 pf=0.92 status=variable vmaxpu=1.5 vminpu=0.92 daily="RES_2_DU"
 
New "Load.BT_15841_120_M1" bus1="UC15841.2.4" phases=1 conn=delta model=2 kv=0.22 kw = 0.004643557127600664 pf=0.92 status=variable vmaxpu=1.5 vminpu=0.92 daily="RES_4_DU" 
New "Load.BT_15841_120_M2" bus1="UC15841.2.4" phases=1 conn=delta model=3 kv=0.22 kw = 0.004643557127600664 pf=0.92 status=variable vmaxpu=1.5 vminpu=0.92 daily="RES_4_DU"
 
New "Load.BT_358_126_M1" bus1="UC358.3.1.4" phases=2 conn=delta model=2 kv=0.38 kw = 0.47601916740131966 pf=0.92 status=variable vmaxpu=1.5 vminpu=0.92 daily="COM_1_DU" 
New "Load.BT_358_126_M2" bus1="UC358.3.1.4" phases=2 conn=delta model=3 kv=0.38 kw = 0.47601916740131966 pf=0.92 status=variable vmaxpu=1.5 vminpu=0.92 daily="COM_1_DU"
 
New "Load.BT_6892_128_M1" bus1="UC6892.2.4" phases=1 conn=delta model=2 kv=0.22 kw = 0.22220812738145376 pf=0.92 status=variable vmaxpu=1.5 vminpu=0.92 daily="RES_2_DU" 
New "Load.BT_6892_128_M2" bus1="UC6892.2.4" phases=1 conn=delta model=3 kv=0.22 kw = 0.22220812738145376 pf=0.92 status=variable vmaxpu=1.5 vminpu=0.92 daily="RES_2_DU"
 
New "Load.BT_14783_129_M1" bus1="UC14783.1.2.3.4" phases=3 conn=delta model=2 kv=0.38 kw = 0.17623403206115296 pf=0.92 status=variable vmaxpu=1.5 vminpu=0.92 daily="RES_2_DU" 
New "Load.BT_14783_129_M2" bus1="UC14783.1.2.3.4" phases=3 conn=delta model=3 kv=0.38 kw = 0.17623403206115296 pf=0.92 status=variable vmaxpu=1.5 vminpu=0.92 daily="RES_2_DU"
 
New "Load.BT_15490_130_M1" bus1="UC15490.2.4" phases=1 conn=delta model=2 kv=0.22 kw = 0.38822569381587324 pf=0.92 status=variable vmaxpu=1.5 vminpu=0.92 daily="RES_2_DU" 
New "Load.BT_15490_130_M2" bus1="UC15490.2.4" phases=1 conn=delta model=3 kv=0.22 kw = 0.38822569381587324 pf=0.92 status=variable vmaxpu=1.5 vminpu=0.92 daily="RES_2_DU"
 
New "Load.BT_15492_131_M1" bus1="UC15492.1.2.3.4" phases=3 conn=delta model=2 kv=0.38 kw = 0.10982700548738518 pf=0.92 status=variable vmaxpu=1.5 vminpu=0.92 daily="RES_2_DU" 
New "Load.BT_15492_131_M2" bus1="UC15492.1.2.3.4" phases=3 conn=delta model=3 kv=0.38 kw = 0.10982700548738518 pf=0.92 status=variable vmaxpu=1.5 vminpu=0.92 daily="RES_2_DU"
 
New "Load.BT_15495_133_M1" bus1="UC15495.1.2.3.4" phases=3 conn=delta model=2 kv=0.38 kw = 0.11728008472206428 pf=0.92 status=variable vmaxpu=1.5 vminpu=0.92 daily="COM_1_DU" 
New "Load.BT_15495_133_M2" bus1="UC15495.1.2.3.4" phases=3 conn=delta model=3 kv=0.38 kw = 0.11728008472206428 pf=0.92 status=variable vmaxpu=1.5 vminpu=0.92 daily="COM_1_DU"
 
New "Load.BT_15493_134_M1" bus1="UC15493.2.4" phases=1 conn=delta model=2 kv=0.22 kw = 0.3907798102225566 pf=0.92 status=variable vmaxpu=1.5 vminpu=0.92 daily="RES_2_DU" 
New "Load.BT_15493_134_M2" bus1="UC15493.2.4" phases=1 conn=delta model=3 kv=0.22 kw = 0.3907798102225566 pf=0.92 status=variable vmaxpu=1.5 vminpu=0.92 daily="RES_2_DU"
 
New "Load.BT_15496_135_M1" bus1="UC15496.3.4" phases=1 conn=delta model=2 kv=0.38 kw = 0.02298704766015039 pf=0.92 status=variable vmaxpu=1.5 vminpu=0.92 daily="RES_2_DU" 
New "Load.BT_15496_135_M2" bus1="UC15496.3.4" phases=1 conn=delta model=3 kv=0.38 kw = 0.02298704766015039 pf=0.92 status=variable vmaxpu=1.5 vminpu=0.92 daily="RES_2_DU"
 
New "Load.BT_14400_138_M1" bus1="UC14400.1.4" phases=1 conn=delta model=2 kv=0.22 kw = 0.2605198734817044 pf=0.92 status=variable vmaxpu=1.5 vminpu=0.92 daily="RES_2_DU" 
New "Load.BT_14400_138_M2" bus1="UC14400.1.4" phases=1 conn=delta model=3 kv=0.22 kw = 0.2605198734817044 pf=0.92 status=variable vmaxpu=1.5 vminpu=0.92 daily="RES_2_DU"
 
New "Load.BT_6077_139_M1" bus1="UC6077.1.4" phases=1 conn=delta model=2 kv=0.22 kw = 0.3243727836487888 pf=0.92 status=variable vmaxpu=1.5 vminpu=0.92 daily="RES_2_DU" 
New "Load.BT_6077_139_M2" bus1="UC6077.1.4" phases=1 conn=delta model=3 kv=0.22 kw = 0.3243727836487888 pf=0.92 status=variable vmaxpu=1.5 vminpu=0.92 daily="RES_2_DU"
 
New "Load.BT_7595_141_M1" bus1="UC7595.2.3.4" phases=2 conn=delta model=2 kv=0.38 kw = 0.9348919614216719 pf=0.92 status=variable vmaxpu=1.5 vminpu=0.92 daily="RES_7_DU" 
New "Load.BT_7595_141_M2" bus1="UC7595.2.3.4" phases=2 conn=delta model=3 kv=0.38 kw = 0.9348919614216719 pf=0.92 status=variable vmaxpu=1.5 vminpu=0.92 daily="RES_7_DU"
 
New "Load.BT_10551_142_M1" bus1="UC10551.3.4" phases=1 conn=delta model=2 kv=0.22 kw = 0.34687638415683986 pf=0.92 status=variable vmaxpu=1.5 vminpu=0.92 daily="RES_11_DU" 
New "Load.BT_10551_142_M2" bus1="UC10551.3.4" phases=1 conn=delta model=3 kv=0.22 kw = 0.34687638415683986 pf=0.92 status=variable vmaxpu=1.5 vminpu=0.92 daily="RES_11_DU"
 
New "Load.BT_8865_145_M1" bus1="UC8865.3.4" phases=1 conn=delta model=2 kv=0.22 kw = 0.28759642182392925 pf=0.92 status=variable vmaxpu=1.5 vminpu=0.92 daily="RES_13_DU" 
New "Load.BT_8865_145_M2" bus1="UC8865.3.4" phases=1 conn=delta model=3 kv=0.22 kw = 0.28759642182392925 pf=0.92 status=variable vmaxpu=1.5 vminpu=0.92 daily="RES_13_DU"
 
New "Load.BT_5847_147_M1" bus1="UC5847.2.4" phases=1 conn=delta model=2 kv=0.22 kw = 0.6768408477710948 pf=0.92 status=variable vmaxpu=1.5 vminpu=0.92 daily="RES_2_DU" 
New "Load.BT_5847_147_M2" bus1="UC5847.2.4" phases=1 conn=delta model=3 kv=0.22 kw = 0.6768408477710948 pf=0.92 status=variable vmaxpu=1.5 vminpu=0.92 daily="RES_2_DU"
 
New "Load.BT_8287_148_M1" bus1="UC8287.2.4" phases=1 conn=delta model=2 kv=0.22 kw = 0.5329345026340863 pf=0.92 status=variable vmaxpu=1.5 vminpu=0.92 daily="COM_1_DU" 
New "Load.BT_8287_148_M2" bus1="UC8287.2.4" phases=1 conn=delta model=3 kv=0.22 kw = 0.5329345026340863 pf=0.92 status=variable vmaxpu=1.5 vminpu=0.92 daily="COM_1_DU"
 
New "Load.BT_14783_149_M1" bus1="UC14783.1.2.3.4" phases=3 conn=delta model=2 kv=0.38 kw = 0.23753282582155402 pf=0.92 status=variable vmaxpu=1.5 vminpu=0.92 daily="RES_2_DU" 
New "Load.BT_14783_149_M2" bus1="UC14783.1.2.3.4" phases=3 conn=delta model=3 kv=0.38 kw = 0.23753282582155402 pf=0.92 status=variable vmaxpu=1.5 vminpu=0.92 daily="RES_2_DU"
 
New "Load.BT_8105_150_M1" bus1="UC8105.2.4" phases=1 conn=delta model=2 kv=0.22 kw = 0.0474294460273054 pf=0.92 status=variable vmaxpu=1.5 vminpu=0.92 daily="COM_1_DU" 
New "Load.BT_8105_150_M2" bus1="UC8105.2.4" phases=1 conn=delta model=3 kv=0.22 kw = 0.0474294460273054 pf=0.92 status=variable vmaxpu=1.5 vminpu=0.92 daily="COM_1_DU"
 
New "Load.BT_14783_151_M1" bus1="UC14783.1.2.3.4" phases=3 conn=delta model=2 kv=0.38 kw = 0.7034989048315006 pf=0.92 status=variable vmaxpu=1.5 vminpu=0.92 daily="RES_4_DU" 
New "Load.BT_14783_151_M2" bus1="UC14783.1.2.3.4" phases=3 conn=delta model=3 kv=0.38 kw = 0.7034989048315006 pf=0.92 status=variable vmaxpu=1.5 vminpu=0.92 daily="RES_4_DU"
 
New "Load.BT_11184_154_M1" bus1="UC11184.3.4" phases=1 conn=delta model=2 kv=0.22 kw = 0.24998353942029236 pf=0.92 status=variable vmaxpu=1.5 vminpu=0.92 daily="RES_11_DU" 
New "Load.BT_11184_154_M2" bus1="UC11184.3.4" phases=1 conn=delta model=3 kv=0.22 kw = 0.24998353942029236 pf=0.92 status=variable vmaxpu=1.5 vminpu=0.92 daily="RES_11_DU"
 
New "Load.BT_14890_155_M1" bus1="UC14890.1.2.3.4" phases=3 conn=delta model=2 kv=0.38 kw = 0.30831543408587053 pf=0.92 status=variable vmaxpu=1.5 vminpu=0.92 daily="RES_7_DU" 
New "Load.BT_14890_155_M2" bus1="UC14890.1.2.3.4" phases=3 conn=delta model=3 kv=0.38 kw = 0.30831543408587053 pf=0.92 status=variable vmaxpu=1.5 vminpu=0.92 daily="RES_7_DU"
 
New "Load.BT_15109_157_M1" bus1="UC15109.1.4" phases=1 conn=delta model=2 kv=0.22 kw = 0.37285393294098956 pf=0.92 status=variable vmaxpu=1.5 vminpu=0.92 daily="RES_1_DU" 
New "Load.BT_15109_157_M2" bus1="UC15109.1.4" phases=1 conn=delta model=3 kv=0.22 kw = 0.37285393294098956 pf=0.92 status=variable vmaxpu=1.5 vminpu=0.92 daily="RES_1_DU"
 
New "Load.BT_10549_159_M1" bus1="UC10549.2.4" phases=1 conn=delta model=2 kv=0.22 kw = 0.0008623535641328255 pf=0.92 status=variable vmaxpu=1.5 vminpu=0.92 daily="COM_1_DU" 
New "Load.BT_10549_159_M2" bus1="UC10549.2.4" phases=1 conn=delta model=3 kv=0.22 kw = 0.0008623535641328255 pf=0.92 status=variable vmaxpu=1.5 vminpu=0.92 daily="COM_1_DU"
 
New "Load.BT_15090_162_M1" bus1="UC15090.3.4" phases=1 conn=delta model=2 kv=0.22 kw = 0.5181802906437939 pf=0.92 status=variable vmaxpu=1.5 vminpu=0.92 daily="RES_3_DU" 
New "Load.BT_15090_162_M2" bus1="UC15090.3.4" phases=1 conn=delta model=3 kv=0.22 kw = 0.5181802906437939 pf=0.92 status=variable vmaxpu=1.5 vminpu=0.92 daily="RES_3_DU"
 
New "Load.BT_11074_165_M1" bus1="UC11074.2.4" phases=1 conn=delta model=2 kv=0.22 kw = 0.10363605812875878 pf=0.92 status=variable vmaxpu=1.5 vminpu=0.92 daily="RES_3_DU" 
New "Load.BT_11074_165_M2" bus1="UC11074.2.4" phases=1 conn=delta model=3 kv=0.22 kw = 0.10363605812875878 pf=0.92 status=variable vmaxpu=1.5 vminpu=0.92 daily="RES_3_DU"
 
New "Load.BT_15673_170_M1" bus1="UC15673.2.3.4" phases=2 conn=delta model=2 kv=0.38 kw = 0.81048712126337 pf=0.92 status=variable vmaxpu=1.5 vminpu=0.92 daily="RES_3_DU" 
New "Load.BT_15673_170_M2" bus1="UC15673.2.3.4" phases=2 conn=delta model=3 kv=0.38 kw = 0.81048712126337 pf=0.92 status=variable vmaxpu=1.5 vminpu=0.92 daily="RES_3_DU"
 
New "Load.BT_14821_172_M1" bus1="UC14821.3.4" phases=1 conn=delta model=2 kv=0.22 kw = 0.23384546449566082 pf=0.92 status=variable vmaxpu=1.5 vminpu=0.92 daily="RES_3_DU" 
New "Load.BT_14821_172_M2" bus1="UC14821.3.4" phases=1 conn=delta model=3 kv=0.22 kw = 0.23384546449566082 pf=0.92 status=variable vmaxpu=1.5 vminpu=0.92 daily="RES_3_DU"
 
New "Load.BT_12804_173_M1" bus1="UC12804.1.4" phases=1 conn=delta model=2 kv=0.22 kw = 0.23650279931947515 pf=0.92 status=variable vmaxpu=1.5 vminpu=0.92 daily="RES_3_DU" 
New "Load.BT_12804_173_M2" bus1="UC12804.1.4" phases=1 conn=delta model=3 kv=0.22 kw = 0.23650279931947515 pf=0.92 status=variable vmaxpu=1.5 vminpu=0.92 daily="RES_3_DU"
 
New "Load.BT_11814_175_M1" bus1="UC11814.2.4" phases=1 conn=delta model=2 kv=0.22 kw = 0.2235399155799845 pf=0.92 status=variable vmaxpu=1.5 vminpu=0.92 daily="RES_6_DU" 
New "Load.BT_11814_175_M2" bus1="UC11814.2.4" phases=1 conn=delta model=3 kv=0.22 kw = 0.2235399155799845 pf=0.92 status=variable vmaxpu=1.5 vminpu=0.92 daily="RES_6_DU"
 
New "Load.BT_15821_176_M1" bus1="UC15821.1.2.3.4" phases=3 conn=delta model=2 kv=0.38 kw = 0.8505207634255644 pf=0.92 status=variable vmaxpu=1.5 vminpu=0.92 daily="RES_2_DU" 
New "Load.BT_15821_176_M2" bus1="UC15821.1.2.3.4" phases=3 conn=delta model=3 kv=0.38 kw = 0.8505207634255644 pf=0.92 status=variable vmaxpu=1.5 vminpu=0.92 daily="RES_2_DU"
 
New "Load.BT_7495_177_M1" bus1="UC7495.2.4" phases=1 conn=delta model=2 kv=0.22 kw = 0.3837473360391074 pf=0.92 status=variable vmaxpu=1.5 vminpu=0.92 daily="COM_1_DU" 
New "Load.BT_7495_177_M2" bus1="UC7495.2.4" phases=1 conn=delta model=3 kv=0.22 kw = 0.3837473360391074 pf=0.92 status=variable vmaxpu=1.5 vminpu=0.92 daily="COM_1_DU"
 
New "Load.BT_5102_178_M1" bus1="UC5102.3.4" phases=1 conn=delta model=2 kv=0.22 kw = 0.20236244989345972 pf=0.92 status=variable vmaxpu=1.5 vminpu=0.92 daily="RES_6_DU" 
New "Load.BT_5102_178_M2" bus1="UC5102.3.4" phases=1 conn=delta model=3 kv=0.22 kw = 0.20236244989345972 pf=0.92 status=variable vmaxpu=1.5 vminpu=0.92 daily="RES_6_DU"
 
New "Load.BT_1753_179_M1" bus1="UC1753.3.4" phases=1 conn=delta model=2 kv=0.22 kw = 1.1442441501941525 pf=0.92 status=variable vmaxpu=1.5 vminpu=0.92 daily="RES_2_DU" 
New "Load.BT_1753_179_M2" bus1="UC1753.3.4" phases=1 conn=delta model=3 kv=0.22 kw = 1.1442441501941525 pf=0.92 status=variable vmaxpu=1.5 vminpu=0.92 daily="RES_2_DU"
 
New "Load.BT_11184_183_M1" bus1="UC11184.3.4" phases=1 conn=delta model=2 kv=0.22 kw = 0.08511851090921965 pf=0.92 status=variable vmaxpu=1.5 vminpu=0.92 daily="RES_9_DU" 
New "Load.BT_11184_183_M2" bus1="UC11184.3.4" phases=1 conn=delta model=3 kv=0.22 kw = 0.08511851090921965 pf=0.92 status=variable vmaxpu=1.5 vminpu=0.92 daily="RES_9_DU"
 
New "Load.BT_15510_185_M1" bus1="UC15510.1.2.3.4" phases=3 conn=delta model=2 kv=0.38 kw = 0.005862871416722174 pf=0.92 status=variable vmaxpu=1.5 vminpu=0.92 daily="COM_12_DU" 
New "Load.BT_15510_185_M2" bus1="UC15510.1.2.3.4" phases=3 conn=delta model=3 kv=0.38 kw = 0.005862871416722174 pf=0.92 status=variable vmaxpu=1.5 vminpu=0.92 daily="COM_12_DU"
 
New "Load.BT_15793_186_M1" bus1="UC15793.1.2.3.4" phases=3 conn=delta model=2 kv=0.38 kw = 0.06553887087409474 pf=0.92 status=variable vmaxpu=1.5 vminpu=0.92 daily="COM_1_DU" 
New "Load.BT_15793_186_M2" bus1="UC15793.1.2.3.4" phases=3 conn=delta model=3 kv=0.38 kw = 0.06553887087409474 pf=0.92 status=variable vmaxpu=1.5 vminpu=0.92 daily="COM_1_DU"
 
New "Load.BT_15796_188_M1" bus1="UC15796.3.4" phases=1 conn=delta model=2 kv=0.22 kw = 0.09961053986065169 pf=0.92 status=variable vmaxpu=1.5 vminpu=0.92 daily="RES_2_DU" 
New "Load.BT_15796_188_M2" bus1="UC15796.3.4" phases=1 conn=delta model=3 kv=0.22 kw = 0.09961053986065169 pf=0.92 status=variable vmaxpu=1.5 vminpu=0.92 daily="RES_2_DU"
 
New "Load.BT_15798_190_M1" bus1="UC15798.1.2.3.4" phases=3 conn=delta model=2 kv=0.38 kw = 0.04437483446837305 pf=0.92 status=variable vmaxpu=1.5 vminpu=0.92 daily="RES_12_DU" 
New "Load.BT_15798_190_M2" bus1="UC15798.1.2.3.4" phases=3 conn=delta model=3 kv=0.38 kw = 0.04437483446837305 pf=0.92 status=variable vmaxpu=1.5 vminpu=0.92 daily="RES_12_DU"
 
New "Load.BT_10578_191_M1" bus1="UC10578.1.4" phases=1 conn=delta model=2 kv=0.22 kw = 0.5602721329087325 pf=0.92 status=variable vmaxpu=1.5 vminpu=0.92 daily="RES_7_DU" 
New "Load.BT_10578_191_M2" bus1="UC10578.1.4" phases=1 conn=delta model=3 kv=0.22 kw = 0.5602721329087325 pf=0.92 status=variable vmaxpu=1.5 vminpu=0.92 daily="RES_7_DU"
 
New "Load.BT_9738_192_M1" bus1="UC9738.1.4" phases=1 conn=delta model=2 kv=0.22 kw = 0.5200244351913325 pf=0.92 status=variable vmaxpu=1.5 vminpu=0.92 daily="RES_6_DU" 
New "Load.BT_9738_192_M2" bus1="UC9738.1.4" phases=1 conn=delta model=3 kv=0.22 kw = 0.5200244351913325 pf=0.92 status=variable vmaxpu=1.5 vminpu=0.92 daily="RES_6_DU"
 
New "Load.BT_6242_193_M1" bus1="UC6242.2.4" phases=1 conn=delta model=2 kv=0.22 kw = 0.12004347111411869 pf=0.92 status=variable vmaxpu=1.5 vminpu=0.92 daily="RES_2_DU" 
New "Load.BT_6242_193_M2" bus1="UC6242.2.4" phases=1 conn=delta model=3 kv=0.22 kw = 0.12004347111411869 pf=0.92 status=variable vmaxpu=1.5 vminpu=0.92 daily="RES_2_DU"
 
New "Load.BT_11814_195_M1" bus1="UC11814.2.4" phases=1 conn=delta model=2 kv=0.22 kw = 0.06931078745465027 pf=0.92 status=variable vmaxpu=1.5 vminpu=0.92 daily="RES_9_DU" 
New "Load.BT_11814_195_M2" bus1="UC11814.2.4" phases=1 conn=delta model=3 kv=0.22 kw = 0.06931078745465027 pf=0.92 status=variable vmaxpu=1.5 vminpu=0.92 daily="RES_9_DU"
 
New "Load.BT_6619_196_M1" bus1="UC6619.3.4" phases=1 conn=delta model=2 kv=0.22 kw = 0.2809528047351714 pf=0.92 status=variable vmaxpu=1.5 vminpu=0.92 daily="RES_2_DU" 
New "Load.BT_6619_196_M2" bus1="UC6619.3.4" phases=1 conn=delta model=3 kv=0.22 kw = 0.2809528047351714 pf=0.92 status=variable vmaxpu=1.5 vminpu=0.92 daily="RES_2_DU"
 
New "Load.BT_15805_197_M1" bus1="UC15805.1.4" phases=1 conn=delta model=2 kv=0.22 kw = 0.010216465626733505 pf=0.92 status=variable vmaxpu=1.5 vminpu=0.92 daily="RES_2_DU" 
New "Load.BT_15805_197_M2" bus1="UC15805.1.4" phases=1 conn=delta model=3 kv=0.22 kw = 0.010216465626733505 pf=0.92 status=variable vmaxpu=1.5 vminpu=0.92 daily="RES_2_DU"
 
New "Load.BT_15807_199_M1" bus1="UC15807.1.2.3.4" phases=3 conn=delta model=2 kv=0.38 kw = 16.600306109556893 pf=0.92 status=variable vmaxpu=1.5 vminpu=0.92 daily="COM_1_DU" 
New "Load.BT_15807_199_M2" bus1="UC15807.1.2.3.4" phases=3 conn=delta model=3 kv=0.38 kw = 16.600306109556893 pf=0.92 status=variable vmaxpu=1.5 vminpu=0.92 daily="COM_1_DU"
 
New "Load.BT_14335_200_M1" bus1="UC14335.2.4" phases=1 conn=delta model=2 kv=0.22 kw = 0.2937233867685883 pf=0.92 status=variable vmaxpu=1.5 vminpu=0.92 daily="RES_2_DU" 
New "Load.BT_14335_200_M2" bus1="UC14335.2.4" phases=1 conn=delta model=3 kv=0.22 kw = 0.2937233867685883 pf=0.92 status=variable vmaxpu=1.5 vminpu=0.92 daily="RES_2_DU"
 
New "Load.BT_12650_202_M1" bus1="UC12650.2.3.4" phases=2 conn=delta model=2 kv=0.38 kw = 0.43214208752500155 pf=0.92 status=variable vmaxpu=1.5 vminpu=0.92 daily="RES_11_DU" 
New "Load.BT_12650_202_M2" bus1="UC12650.2.3.4" phases=2 conn=delta model=3 kv=0.38 kw = 0.43214208752500155 pf=0.92 status=variable vmaxpu=1.5 vminpu=0.92 daily="RES_11_DU"
 
New "Load.BT_10383_203_M1" bus1="UC10383.2.4" phases=1 conn=delta model=2 kv=0.22 kw = 0.20793236236395085 pf=0.92 status=variable vmaxpu=1.5 vminpu=0.92 daily="RES_9_DU" 
New "Load.BT_10383_203_M2" bus1="UC10383.2.4" phases=1 conn=delta model=3 kv=0.22 kw = 0.20793236236395085 pf=0.92 status=variable vmaxpu=1.5 vminpu=0.92 daily="RES_9_DU"
 
New "Load.BT_14653_204_M1" bus1="UC14653.1.2.3.4" phases=3 conn=delta model=2 kv=0.38 kw = 0.5440267946235591 pf=0.92 status=variable vmaxpu=1.5 vminpu=0.92 daily="RES_2_DU" 
New "Load.BT_14653_204_M2" bus1="UC14653.1.2.3.4" phases=3 conn=delta model=3 kv=0.38 kw = 0.5440267946235591 pf=0.92 status=variable vmaxpu=1.5 vminpu=0.92 daily="RES_2_DU"
 
New "Load.BT_5977_205_M1" bus1="UC5977.2.4" phases=1 conn=delta model=2 kv=0.22 kw = 0.10982700548738518 pf=0.92 status=variable vmaxpu=1.5 vminpu=0.92 daily="RES_2_DU" 
New "Load.BT_5977_205_M2" bus1="UC5977.2.4" phases=1 conn=delta model=3 kv=0.22 kw = 0.10982700548738518 pf=0.92 status=variable vmaxpu=1.5 vminpu=0.92 daily="RES_2_DU"
 
New "Load.BT_14783_206_M1" bus1="UC14783.1.2.3.4" phases=3 conn=delta model=2 kv=0.38 kw = 0.32948101646215555 pf=0.92 status=variable vmaxpu=1.5 vminpu=0.92 daily="RES_2_DU" 
New "Load.BT_14783_206_M2" bus1="UC14783.1.2.3.4" phases=3 conn=delta model=3 kv=0.38 kw = 0.32948101646215555 pf=0.92 status=variable vmaxpu=1.5 vminpu=0.92 daily="RES_2_DU"
 
New "Load.BT_6236_207_M1" bus1="UC6236.1.2.3.4" phases=3 conn=delta model=2 kv=0.38 kw = 0.17247071282656512 pf=0.92 status=variable vmaxpu=1.5 vminpu=0.92 daily="COM_1_DU" 
New "Load.BT_6236_207_M2" bus1="UC6236.1.2.3.4" phases=3 conn=delta model=3 kv=0.38 kw = 0.17247071282656512 pf=0.92 status=variable vmaxpu=1.5 vminpu=0.92 daily="COM_1_DU"
 
New "Load.BT_13253_208_M1" bus1="UC13253.1.2.4" phases=2 conn=delta model=2 kv=0.38 kw = 0.2247622437881371 pf=0.92 status=variable vmaxpu=1.5 vminpu=0.92 daily="RES_2_DU" 
New "Load.BT_13253_208_M2" bus1="UC13253.1.2.4" phases=2 conn=delta model=3 kv=0.38 kw = 0.2247622437881371 pf=0.92 status=variable vmaxpu=1.5 vminpu=0.92 daily="RES_2_DU"
 
New "Load.BT_15079_209_M1" bus1="UC15079.3.4" phases=1 conn=delta model=2 kv=0.22 kw = 0.33331138589372317 pf=0.92 status=variable vmaxpu=1.5 vminpu=0.92 daily="RES_11_DU" 
New "Load.BT_15079_209_M2" bus1="UC15079.3.4" phases=1 conn=delta model=3 kv=0.22 kw = 0.33331138589372317 pf=0.92 status=variable vmaxpu=1.5 vminpu=0.92 daily="RES_11_DU"
 
New "Load.BT_2860_210_M1" bus1="UC2860.2.4" phases=1 conn=delta model=2 kv=0.22 kw = 0.3754551117824563 pf=0.92 status=variable vmaxpu=1.5 vminpu=0.92 daily="RES_2_DU" 
New "Load.BT_2860_210_M2" bus1="UC2860.2.4" phases=1 conn=delta model=3 kv=0.22 kw = 0.3754551117824563 pf=0.92 status=variable vmaxpu=1.5 vminpu=0.92 daily="RES_2_DU"
 
New "Load.BT_14783_211_M1" bus1="UC14783.1.2.3.4" phases=3 conn=delta model=2 kv=0.38 kw = 0.04188178589567564 pf=0.92 status=variable vmaxpu=1.5 vminpu=0.92 daily="RES_5_DU" 
New "Load.BT_14783_211_M2" bus1="UC14783.1.2.3.4" phases=3 conn=delta model=3 kv=0.38 kw = 0.04188178589567564 pf=0.92 status=variable vmaxpu=1.5 vminpu=0.92 daily="RES_5_DU"
 
New "Load.BT_5377_212_M1" bus1="UC5377.3.4" phases=1 conn=delta model=2 kv=0.22 kw = 0.0723104445621287 pf=0.92 status=variable vmaxpu=1.5 vminpu=0.92 daily="COM_5_DU" 
New "Load.BT_5377_212_M2" bus1="UC5377.3.4" phases=1 conn=delta model=3 kv=0.22 kw = 0.0723104445621287 pf=0.92 status=variable vmaxpu=1.5 vminpu=0.92 daily="COM_5_DU"
 
New "Load.BT_15362_213_M1" bus1="UC15362.3.1.4" phases=2 conn=delta model=2 kv=0.38 kw = 0.42251623698647806 pf=0.92 status=variable vmaxpu=1.5 vminpu=0.92 daily="RES_3_DU" 
New "Load.BT_15362_213_M2" bus1="UC15362.3.1.4" phases=2 conn=delta model=3 kv=0.38 kw = 0.42251623698647806 pf=0.92 status=variable vmaxpu=1.5 vminpu=0.92 daily="RES_3_DU"
 
New "Load.BT_15362_214_M1" bus1="UC15362.1.2.4" phases=2 conn=delta model=2 kv=0.38 kw = 0.7653124292585264 pf=0.92 status=variable vmaxpu=1.5 vminpu=0.92 daily="RES_3_DU" 
New "Load.BT_15362_214_M2" bus1="UC15362.1.2.4" phases=2 conn=delta model=3 kv=0.38 kw = 0.7653124292585264 pf=0.92 status=variable vmaxpu=1.5 vminpu=0.92 daily="RES_3_DU"
 
New "Load.BT_2835_215_M1" bus1="UC2835.3.4" phases=1 conn=delta model=2 kv=0.22 kw = 0.22853079484803218 pf=0.92 status=variable vmaxpu=1.5 vminpu=0.92 daily="RES_3_DU" 
New "Load.BT_2835_215_M2" bus1="UC2835.3.4" phases=1 conn=delta model=3 kv=0.22 kw = 0.22853079484803218 pf=0.92 status=variable vmaxpu=1.5 vminpu=0.92 daily="RES_3_DU"
 
New "Load.BT_16096_217_M1" bus1="UC16096.2.4" phases=1 conn=delta model=2 kv=0.22 kw = 0.013260878885413786 pf=0.92 status=variable vmaxpu=1.5 vminpu=0.92 daily="RES_7_DU" 
New "Load.BT_16096_217_M2" bus1="UC16096.2.4" phases=1 conn=delta model=3 kv=0.22 kw = 0.013260878885413786 pf=0.92 status=variable vmaxpu=1.5 vminpu=0.92 daily="RES_7_DU"
 
New "Load.BT_16099_218_M1" bus1="UC16099.3.4" phases=1 conn=delta model=2 kv=0.22 kw = 0.0 pf=0.92 status=variable vmaxpu=1.5 vminpu=0.92 daily="COM_1_DU" 
New "Load.BT_16099_218_M2" bus1="UC16099.3.4" phases=1 conn=delta model=3 kv=0.22 kw = 0.0 pf=0.92 status=variable vmaxpu=1.5 vminpu=0.92 daily="COM_1_DU"
 
New "Load.BT_8981_219_M1" bus1="UC8981.3.4" phases=1 conn=delta model=2 kv=0.22 kw = 0.12266312969007752 pf=0.92 status=variable vmaxpu=1.5 vminpu=0.92 daily="RES_7_DU" 
New "Load.BT_8981_219_M2" bus1="UC8981.3.4" phases=1 conn=delta model=3 kv=0.22 kw = 0.12266312969007752 pf=0.92 status=variable vmaxpu=1.5 vminpu=0.92 daily="RES_7_DU"
 
New "Load.BT_16100_220_M1" bus1="UC16100.3.4" phases=1 conn=delta model=2 kv=0.22 kw = 0.19398544213844593 pf=0.92 status=variable vmaxpu=1.5 vminpu=0.92 daily="RES_3_DU" 
New "Load.BT_16100_220_M2" bus1="UC16100.3.4" phases=1 conn=delta model=3 kv=0.22 kw = 0.19398544213844593 pf=0.92 status=variable vmaxpu=1.5 vminpu=0.92 daily="RES_3_DU"
 
New "Load.BT_16103_221_M1" bus1="UC16103.3.4" phases=1 conn=delta model=2 kv=0.22 kw = 0.28433482614813305 pf=0.92 status=variable vmaxpu=1.5 vminpu=0.92 daily="RES_3_DU" 
New "Load.BT_16103_221_M2" bus1="UC16103.3.4" phases=1 conn=delta model=3 kv=0.22 kw = 0.28433482614813305 pf=0.92 status=variable vmaxpu=1.5 vminpu=0.92 daily="RES_3_DU"
 
New "Load.BT_15510_223_M1" bus1="UC15510.1.2.4" phases=2 conn=delta model=2 kv=0.38 kw = 0.4437749155769927 pf=0.92 status=variable vmaxpu=1.5 vminpu=0.92 daily="RES_3_DU" 
New "Load.BT_15510_223_M2" bus1="UC15510.1.2.4" phases=2 conn=delta model=3 kv=0.38 kw = 0.4437749155769927 pf=0.92 status=variable vmaxpu=1.5 vminpu=0.92 daily="RES_3_DU"
 
New "Load.BT_15362_224_M1" bus1="UC15362.1.2.3.4" phases=3 conn=delta model=2 kv=0.38 kw = 0.0 pf=0.92 status=variable vmaxpu=1.5 vminpu=0.92 daily="COM_5_DU" 
New "Load.BT_15362_224_M2" bus1="UC15362.1.2.3.4" phases=3 conn=delta model=3 kv=0.38 kw = 0.0 pf=0.92 status=variable vmaxpu=1.5 vminpu=0.92 daily="COM_5_DU"
 
New "Load.BT_11074_225_M1" bus1="UC11074.3.4" phases=1 conn=delta model=2 kv=0.22 kw = 0.1282927242231316 pf=0.92 status=variable vmaxpu=1.5 vminpu=0.92 daily="COM_5_DU" 
New "Load.BT_11074_225_M2" bus1="UC11074.3.4" phases=1 conn=delta model=3 kv=0.22 kw = 0.1282927242231316 pf=0.92 status=variable vmaxpu=1.5 vminpu=0.92 daily="COM_5_DU"
 
New "Load.BT_16080_226_M1" bus1="UC16080.2.4" phases=1 conn=delta model=2 kv=0.22 kw = 0.1790218649530861 pf=0.92 status=variable vmaxpu=1.5 vminpu=0.92 daily="RES_7_DU" 
New "Load.BT_16080_226_M2" bus1="UC16080.2.4" phases=1 conn=delta model=3 kv=0.22 kw = 0.1790218649530861 pf=0.92 status=variable vmaxpu=1.5 vminpu=0.92 daily="RES_7_DU"
 
New "Load.BT_15581_227_M1" bus1="UC15581.1.2.3.4" phases=3 conn=delta model=2 kv=0.38 kw = 0.21258678590514624 pf=0.92 status=variable vmaxpu=1.5 vminpu=0.92 daily="RES_3_DU" 
New "Load.BT_15581_227_M2" bus1="UC15581.1.2.3.4" phases=3 conn=delta model=3 kv=0.38 kw = 0.21258678590514624 pf=0.92 status=variable vmaxpu=1.5 vminpu=0.92 daily="RES_3_DU"
 
New "Load.BT_6951_228_M1" bus1="UC6951.3.4" phases=1 conn=delta model=2 kv=0.22 kw = 0.016576098606767235 pf=0.92 status=variable vmaxpu=1.5 vminpu=0.92 daily="RES_7_DU" 
New "Load.BT_6951_228_M2" bus1="UC6951.3.4" phases=1 conn=delta model=3 kv=0.22 kw = 0.016576098606767235 pf=0.92 status=variable vmaxpu=1.5 vminpu=0.92 daily="RES_7_DU"
 
New "Load.BT_11814_230_M1" bus1="UC11814.1.2.4" phases=2 conn=delta model=2 kv=0.38 kw = 0.6271310184201814 pf=0.92 status=variable vmaxpu=1.5 vminpu=0.92 daily="RES_3_DU" 
New "Load.BT_11814_230_M2" bus1="UC11814.1.2.4" phases=2 conn=delta model=3 kv=0.38 kw = 0.6271310184201814 pf=0.92 status=variable vmaxpu=1.5 vminpu=0.92 daily="RES_3_DU"
 
New "Load.BT_5368_231_M1" bus1="UC5368.1.2.3.4" phases=3 conn=delta model=2 kv=0.38 kw = 0.16475475907648832 pf=0.92 status=variable vmaxpu=1.5 vminpu=0.92 daily="RES_3_DU" 
New "Load.BT_5368_231_M2" bus1="UC5368.1.2.3.4" phases=3 conn=delta model=3 kv=0.38 kw = 0.16475475907648832 pf=0.92 status=variable vmaxpu=1.5 vminpu=0.92 daily="RES_3_DU"
 
New "Load.BT_11814_233_M1" bus1="UC11814.3.1.4" phases=2 conn=delta model=2 kv=0.38 kw = 0.0928261521978965 pf=0.92 status=variable vmaxpu=1.5 vminpu=0.92 daily="RES_7_DU" 
New "Load.BT_11814_233_M2" bus1="UC11814.3.1.4" phases=2 conn=delta model=3 kv=0.38 kw = 0.0928261521978965 pf=0.92 status=variable vmaxpu=1.5 vminpu=0.92 daily="RES_7_DU"
 
New "Load.BT_13253_235_M1" bus1="UC13253.1.2.4" phases=2 conn=delta model=2 kv=0.38 kw = 0.3481108619196769 pf=0.92 status=variable vmaxpu=1.5 vminpu=0.92 daily="RES_3_DU" 
New "Load.BT_13253_235_M2" bus1="UC13253.1.2.4" phases=2 conn=delta model=3 kv=0.38 kw = 0.3481108619196769 pf=0.92 status=variable vmaxpu=1.5 vminpu=0.92 daily="RES_3_DU"
 
New "Load.BT_15510_236_M1" bus1="UC15510.3.1.4" phases=2 conn=delta model=2 kv=0.38 kw = 0.009945659164060339 pf=0.92 status=variable vmaxpu=1.5 vminpu=0.92 daily="RES_7_DU" 
New "Load.BT_15510_236_M2" bus1="UC15510.3.1.4" phases=2 conn=delta model=3 kv=0.38 kw = 0.009945659164060339 pf=0.92 status=variable vmaxpu=1.5 vminpu=0.92 daily="RES_7_DU"
 
New "Load.BT_12303_237_M1" bus1="UC12303.2.4" phases=1 conn=delta model=2 kv=0.22 kw = 0.0928261521978965 pf=0.92 status=variable vmaxpu=1.5 vminpu=0.92 daily="RES_7_DU" 
New "Load.BT_12303_237_M2" bus1="UC12303.2.4" phases=1 conn=delta model=3 kv=0.22 kw = 0.0928261521978965 pf=0.92 status=variable vmaxpu=1.5 vminpu=0.92 daily="RES_7_DU"
 
New "Load.BT_12262_238_M1" bus1="UC12262.1.4" phases=1 conn=delta model=2 kv=0.22 kw = 0.0033152197213534465 pf=0.92 status=variable vmaxpu=1.5 vminpu=0.92 daily="RES_7_DU" 
New "Load.BT_12262_238_M2" bus1="UC12262.1.4" phases=1 conn=delta model=3 kv=0.22 kw = 0.0033152197213534465 pf=0.92 status=variable vmaxpu=1.5 vminpu=0.92 daily="RES_7_DU"
 
New "Load.BT_15769_240_M1" bus1="UC15769.2.4" phases=1 conn=delta model=2 kv=0.22 kw = 0.3422515984955724 pf=0.92 status=variable vmaxpu=1.5 vminpu=0.92 daily="RES_2_DU" 
New "Load.BT_15769_240_M2" bus1="UC15769.2.4" phases=1 conn=delta model=3 kv=0.22 kw = 0.3422515984955724 pf=0.92 status=variable vmaxpu=1.5 vminpu=0.92 daily="RES_2_DU"
 
New "Load.BT_9154_242_M1" bus1="UC9154.3.4" phases=1 conn=delta model=2 kv=0.22 kw = 0.444974439092538 pf=0.92 status=variable vmaxpu=1.5 vminpu=0.92 daily="COM_1_DU" 
New "Load.BT_9154_242_M2" bus1="UC9154.3.4" phases=1 conn=delta model=3 kv=0.22 kw = 0.444974439092538 pf=0.92 status=variable vmaxpu=1.5 vminpu=0.92 daily="COM_1_DU"
 
New "Load.BT_15771_243_M1" bus1="UC15771.1.2.3.4" phases=3 conn=delta model=2 kv=0.38 kw = 0.5441450989678128 pf=0.92 status=variable vmaxpu=1.5 vminpu=0.92 daily="COM_1_DU" 
New "Load.BT_15771_243_M2" bus1="UC15771.1.2.3.4" phases=3 conn=delta model=3 kv=0.38 kw = 0.5441450989678128 pf=0.92 status=variable vmaxpu=1.5 vminpu=0.92 daily="COM_1_DU"
 
New "Load.BT_15774_244_M1" bus1="UC15774.1.4" phases=1 conn=delta model=2 kv=0.22 kw = 0.31671043442873864 pf=0.92 status=variable vmaxpu=1.5 vminpu=0.92 daily="RES_2_DU" 
New "Load.BT_15774_244_M2" bus1="UC15774.1.4" phases=1 conn=delta model=3 kv=0.22 kw = 0.31671043442873864 pf=0.92 status=variable vmaxpu=1.5 vminpu=0.92 daily="RES_2_DU"
 
New "Load.BT_5019_249_M1" bus1="UC5019.1.4" phases=1 conn=delta model=2 kv=0.22 kw = 0.39333392662923994 pf=0.92 status=variable vmaxpu=1.5 vminpu=0.92 daily="RES_2_DU" 
New "Load.BT_5019_249_M2" bus1="UC5019.1.4" phases=1 conn=delta model=3 kv=0.22 kw = 0.39333392662923994 pf=0.92 status=variable vmaxpu=1.5 vminpu=0.92 daily="RES_2_DU"
 
New "Load.BT_15445_253_M1" bus1="UC15445.3.4" phases=1 conn=delta model=2 kv=0.22 kw = 0.25285752426165425 pf=0.92 status=variable vmaxpu=1.5 vminpu=0.92 daily="RES_2_DU" 
New "Load.BT_15445_253_M2" bus1="UC15445.3.4" phases=1 conn=delta model=3 kv=0.22 kw = 0.25285752426165425 pf=0.92 status=variable vmaxpu=1.5 vminpu=0.92 daily="RES_2_DU"
 
New "Load.BT_7160_254_M1" bus1="UC7160.1.4" phases=1 conn=delta model=2 kv=0.22 kw = 0.09658359918287646 pf=0.92 status=variable vmaxpu=1.5 vminpu=0.92 daily="COM_1_DU" 
New "Load.BT_7160_254_M2" bus1="UC7160.1.4" phases=1 conn=delta model=3 kv=0.22 kw = 0.09658359918287646 pf=0.92 status=variable vmaxpu=1.5 vminpu=0.92 daily="COM_1_DU"
 
New "Load.BT_7914_257_M1" bus1="UC7914.1.4" phases=1 conn=delta model=2 kv=0.22 kw = 0.0336317890011802 pf=0.92 status=variable vmaxpu=1.5 vminpu=0.92 daily="COM_1_DU" 
New "Load.BT_7914_257_M2" bus1="UC7914.1.4" phases=1 conn=delta model=3 kv=0.22 kw = 0.0336317890011802 pf=0.92 status=variable vmaxpu=1.5 vminpu=0.92 daily="COM_1_DU"
 
New "Load.BT_15448_258_M1" bus1="UC15448.1.4" phases=1 conn=delta model=2 kv=0.22 kw = 0.012770582033416883 pf=0.92 status=variable vmaxpu=1.5 vminpu=0.92 daily="RES_2_DU" 
New "Load.BT_15448_258_M2" bus1="UC15448.1.4" phases=1 conn=delta model=3 kv=0.22 kw = 0.012770582033416883 pf=0.92 status=variable vmaxpu=1.5 vminpu=0.92 daily="RES_2_DU"
 
New "Load.BT_10064_260_M1" bus1="UC10064.3.4" phases=1 conn=delta model=2 kv=0.22 kw = 0.2984299617885661 pf=0.92 status=variable vmaxpu=1.5 vminpu=0.92 daily="RES_11_DU" 
New "Load.BT_10064_260_M2" bus1="UC10064.3.4" phases=1 conn=delta model=3 kv=0.22 kw = 0.2984299617885661 pf=0.92 status=variable vmaxpu=1.5 vminpu=0.92 daily="RES_11_DU"
 
New "Load.BT_9638_261_M1" bus1="UC9638.3.4" phases=1 conn=delta model=2 kv=0.22 kw = 0.6853932590827014 pf=0.92 status=variable vmaxpu=1.5 vminpu=0.92 daily="RES_1_DU" 
New "Load.BT_9638_261_M2" bus1="UC9638.3.4" phases=1 conn=delta model=3 kv=0.22 kw = 0.6853932590827014 pf=0.92 status=variable vmaxpu=1.5 vminpu=0.92 daily="RES_1_DU"
 
New "Load.BT_15452_262_M1" bus1="UC15452.1.2.3.4" phases=3 conn=delta model=2 kv=0.38 kw = 0.8760619274923981 pf=0.92 status=variable vmaxpu=1.5 vminpu=0.92 daily="RES_2_DU" 
New "Load.BT_15452_262_M2" bus1="UC15452.1.2.3.4" phases=3 conn=delta model=3 kv=0.38 kw = 0.8760619274923981 pf=0.92 status=variable vmaxpu=1.5 vminpu=0.92 daily="RES_2_DU"
 
New "Load.BT_15581_265_M1" bus1="UC15581.1.4" phases=1 conn=delta model=2 kv=0.22 kw = 0.17804143319555996 pf=0.92 status=variable vmaxpu=1.5 vminpu=0.92 daily="RES_3_DU" 
New "Load.BT_15581_265_M2" bus1="UC15581.1.4" phases=1 conn=delta model=3 kv=0.22 kw = 0.17804143319555996 pf=0.92 status=variable vmaxpu=1.5 vminpu=0.92 daily="RES_3_DU"
 
New "Load.BT_14783_266_M1" bus1="UC14783.1.2.3.4" phases=3 conn=delta model=2 kv=0.38 kw = 0.3135655092100907 pf=0.92 status=variable vmaxpu=1.5 vminpu=0.92 daily="RES_3_DU" 
New "Load.BT_14783_266_M2" bus1="UC14783.1.2.3.4" phases=3 conn=delta model=3 kv=0.38 kw = 0.3135655092100907 pf=0.92 status=variable vmaxpu=1.5 vminpu=0.92 daily="RES_3_DU"
 
New "Load.BT_8867_270_M1" bus1="UC8867.1.4" phases=1 conn=delta model=2 kv=0.22 kw = 0.6377603577154387 pf=0.92 status=variable vmaxpu=1.5 vminpu=0.92 daily="RES_3_DU" 
New "Load.BT_8867_270_M2" bus1="UC8867.1.4" phases=1 conn=delta model=3 kv=0.22 kw = 0.6377603577154387 pf=0.92 status=variable vmaxpu=1.5 vminpu=0.92 daily="RES_3_DU"
 
New "Load.BT_12650_273_M1" bus1="UC12650.2.3.4" phases=2 conn=delta model=2 kv=0.38 kw = 0.26853279742962916 pf=0.92 status=variable vmaxpu=1.5 vminpu=0.92 daily="RES_7_DU" 
New "Load.BT_12650_273_M2" bus1="UC12650.2.3.4" phases=2 conn=delta model=3 kv=0.38 kw = 0.26853279742962916 pf=0.92 status=variable vmaxpu=1.5 vminpu=0.92 daily="RES_7_DU"
 
New "Load.BT_16074_274_M1" bus1="UC16074.1.2.3.4" phases=3 conn=delta model=2 kv=0.38 kw = 10.504444558538038 pf=0.92 status=variable vmaxpu=1.5 vminpu=0.92 daily="RES_3_DU" 
New "Load.BT_16074_274_M2" bus1="UC16074.1.2.3.4" phases=3 conn=delta model=3 kv=0.38 kw = 10.504444558538038 pf=0.92 status=variable vmaxpu=1.5 vminpu=0.92 daily="RES_3_DU"
 
New "Load.BT_16078_276_M1" bus1="UC16078.1.2.4" phases=2 conn=delta model=2 kv=0.38 kw = 0.12266312969007752 pf=0.92 status=variable vmaxpu=1.5 vminpu=0.92 daily="RES_7_DU" 
New "Load.BT_16078_276_M2" bus1="UC16078.1.2.4" phases=2 conn=delta model=3 kv=0.38 kw = 0.12266312969007752 pf=0.92 status=variable vmaxpu=1.5 vminpu=0.92 daily="RES_7_DU"
 
New "Load.BT_15580_277_M1" bus1="UC15580.2.4" phases=1 conn=delta model=2 kv=0.22 kw = 0.2477492914482875 pf=0.92 status=variable vmaxpu=1.5 vminpu=0.92 daily="RES_2_DU" 
New "Load.BT_15580_277_M2" bus1="UC15580.2.4" phases=1 conn=delta model=3 kv=0.22 kw = 0.2477492914482875 pf=0.92 status=variable vmaxpu=1.5 vminpu=0.92 daily="RES_2_DU"
 
New "Load.BT_15707_278_M1" bus1="UC15707.1.4" phases=1 conn=delta model=2 kv=0.22 kw = 0.22731636019482052 pf=0.92 status=variable vmaxpu=1.5 vminpu=0.92 daily="RES_2_DU" 
New "Load.BT_15707_278_M2" bus1="UC15707.1.4" phases=1 conn=delta model=3 kv=0.22 kw = 0.22731636019482052 pf=0.92 status=variable vmaxpu=1.5 vminpu=0.92 daily="RES_2_DU"
 
New "Load.BT_11074_279_M1" bus1="UC11074.1.4" phases=1 conn=delta model=2 kv=0.22 kw = 0.0008623535641328255 pf=0.92 status=variable vmaxpu=1.5 vminpu=0.92 daily="COM_1_DU" 
New "Load.BT_11074_279_M2" bus1="UC11074.1.4" phases=1 conn=delta model=3 kv=0.22 kw = 0.0008623535641328255 pf=0.92 status=variable vmaxpu=1.5 vminpu=0.92 daily="COM_1_DU"
 
New "Load.BT_8981_281_M1" bus1="UC8981.2.4" phases=1 conn=delta model=2 kv=0.22 kw = 0.508269164929992 pf=0.92 status=variable vmaxpu=1.5 vminpu=0.92 daily="RES_2_DU" 
New "Load.BT_8981_281_M2" bus1="UC8981.2.4" phases=1 conn=delta model=3 kv=0.22 kw = 0.508269164929992 pf=0.92 status=variable vmaxpu=1.5 vminpu=0.92 daily="RES_2_DU"
 
...